scripts/data/matpower/Other/7kBusBrazilPB.m
%% MATPOWER Case Format : Version 2
function mpc = 7kBusBrazilPB
mpc.version = '2';

%%-----  Power Flow Data  -----%%
%% system MVA base
mpc.baseMVA = 100.0;
%% bus data
%    bus_i    type    Pd    Qd    Gs    Bs    area    Vm    Va    baseKV    zone    Vmax    Vmin
mpc.bus = [
	9	2	0.0	0.0	0.0	0.0	44	1.026	-21.0	992.0	1	1.05	0.95				
	10	2	32.0	15.49	0.0	0.0	44	1.016	-14.0	992.0	1	1.05	0.95				
	11	2	65.0	31.5	0.0	0.0	44	0.976	-21.0	992.0	1	1.05	0.95				
	12	2	0.0	0.0	0.0	0.0	1	1.003	9.91	992.0	1	1.05	0.95				
	13	2	0.0	0.0	0.0	0.0	1	1.008	5.39	990.0	1	1.05	0.95				
	14	2	1.14	0.0	0.0	0.0	1	1.015	-28.0	992.0	1	1.05	0.95				
	16	2	0.0	0.0	0.0	0.0	1	0.995	2.51	992.0	1	1.05	0.95				
	17	2	0.0	0.0	0.0	0.0	1	1.007	-4.0	990.0	1	1.05	0.95				
	18	2	0.0	0.0	0.0	0.0	1	0.985	27.2	992.0	1	1.05	0.95				
	19	2	0.0	0.0	0.0	0.0	1	1.015	18.9	990.0	1	1.05	0.95				
	20	2	0.0	0.0	0.0	0.0	1	1.028	19.9	992.0	1	1.05	0.95				
	21	2	0.0	0.0	0.0	0.0	1	0.975	38.4	992.0	1	1.05	0.95				
	22	2	1.8000000000000003	0.0	0.0	0.0	1	1.003	11.300000000000002	992.0	1	1.05	0.95				
	24	2	1.2	0.0	0.0	0.0	1	0.985	8.96	992.0	1	1.05	0.95				
	28	2	1.55	0.0	0.0	0.0	1	1.024	26.2	992.0	1	1.05	0.95				
	29	1	0.0	0.0	0.0	0.0	46	1.003	25.2	34.5	1	1.05	0.95				
	30	2	0.0	0.0	0.0	0.0	1	1.008	-31.0	992.0	1	1.05	0.95				
	31	2	0.0	0.0	0.0	0.0	1	0.965	-31.0	992.0	1	1.05	0.95				
	32	2	0.0	0.0	0.0	0.0	1	1.008	-31.0	992.0	1	1.05	0.95				
	34	2	0.0	0.0	0.0	0.0	46	1.004	25.2	34.5	1	1.05	0.95				
	35	2	0.0	0.0	0.0	0.0	1	0.966	24.2	992.0	1	1.05	0.95				
	36	2	0.0	0.0	0.0	0.0	1	0.98	21.200000000000003	992.0	1	1.05	0.95				
	37	2	0.0	0.0	0.0	0.0	1	1.011	16.2	990.0	1	1.05	0.95				
	38	2	1.3	0.0	0.0	0.0	1	1.01	-29.999999999999996	990.0	1	1.05	0.95				
	40	1	0.0	0.0	0.0	0.0	1	1.053	5.69	990.0	1	1.05	0.95				
	41	2	0.0	0.0	0.0	0.0	1	1.007	-48.00000000000001	990.0	1	1.05	0.95				
	42	1	0.0	0.0	0.0	-24.5	1	0.97	13.0	990.0	1	1.05	0.95				
	43	1	0.0	0.0	0.0	-24.5	1	0.97	13.0	990.0	1	1.05	0.95				
	44	2	1.3	0.0	0.0	0.0	1	1.01	-29.999999999999996	990.0	1	1.05	0.95				
	45	2	0.0	0.0	0.0	0.0	1	0.993	-48.00000000000001	990.0	1	1.05	0.95				
	46	1	0.0	0.0	0.0	-7.049999999999999	1	1.012	-42.0	990.0	1	1.05	0.95				
	48	2	0.0	0.0	0.0	0.0	1	1.008	-11.0	990.0	1	1.05	0.95				
	50	2	0.55	0.0	0.0	0.0	1	1.003	-17.0	990.0	1	1.05	0.95				
	55	1	0.0	0.0	0.0	-5.49	1	0.982	3.5900000000000003	990.0	1	1.05	0.95				
	56	1	0.0	0.0	0.0	-180.0	1	0.962	2.57	69.0	1	1.05	0.95				
	57	1	0.0	0.0	0.0	-180.0	1	0.963	2.56	69.0	1	1.05	0.95				
	58	1	0.0	0.0	0.0	0.0	1	1.025	2.56	991.0	1	1.9	0.4				
	59	1	0.0	0.0	0.0	0.0	1	1.025	2.57	991.0	1	1.9	0.4				
	60	1	0.0	0.0	0.0	0.0	1	0.989	15.300000000000002	765.0	1	1.046	0.9				
	61	1	0.0	0.0	0.0	0.0	1	1.034	20.3	500.0	1	1.1	1.0				
	62	1	0.0	0.0	0.0	0.0	1	1.038	-3.9	765.0	1	1.046	0.9				
	63	1	0.0	0.0	0.0	0.0	1	1.037	-3.8	765.0	1	1.046	0.9				
	64	1	0.0	0.0	0.0	0.0	1	1.034	-3.6	765.0	1	1.046	0.9				
	65	1	0.0	0.0	0.0	-330.0	1	1.023	3.43	765.0	1	1.046	0.9				
	66	1	0.0	0.0	0.0	0.0	1	1.021	2.74	525.0	1	1.048	0.95				
	67	1	0.24	0.0	0.0	-180.0	1	0.961	2.71	69.0	1	1.05	0.95				
	68	1	0.0	0.0	0.0	0.0	1	1.022	2.71	991.0	1	1.9	0.4				
	69	1	0.0	0.0	0.0	0.0	1	1.017	10.3	765.0	1	1.046	0.9				
	70	1	0.0	0.0	0.0	0.0	1	1.018	10.3	765.0	1	1.046	0.9				
	71	1	0.0	0.0	0.0	0.0	1	1.017	10.2	765.0	1	1.046	0.9				
	72	1	0.0	0.0	0.0	-660.0	1	1.026	-3.2	765.0	1	1.046	0.9				
	73	1	0.0	0.0	0.0	0.0	1	0.993	5.05	765.0	1	1.046	0.9				
	74	1	0.0	0.0	0.0	0.0	1	0.993	5.05	765.0	1	1.046	0.9				
	75	1	0.0	0.0	0.0	0.0	1	0.99	4.6000000000000005	765.0	1	1.046	0.9				
	76	1	0.0	0.0	0.0	0.0	1	0.988	-11.0	765.0	1	1.046	0.9				
	77	1	0.0	0.0	0.0	0.0	1	1.094	-13.0	500.0	1	1.1	1.0				
	78	1	0.0	0.0	0.0	600.0	1	1.043	-17.0	345.0	1	1.05	0.95				
	79	1	0.0	0.0	0.0	0.0	1	0.998	-13.0	69.0	1	1.05	0.95				
	80	1	0.0	0.0	0.0	0.0	1	0.998	-13.0	991.0	1	1.9	0.4				
	81	1	0.0	0.0	0.0	0.0	1	0.993	-17.0	991.0	1	1.9	0.4				
	82	1	0.0	0.0	0.0	600.0	1	1.045	-16.0	345.0	1	1.05	0.95				
	85	1	60.0	0.0	0.0	1540.0	1	1.025	-8.3	500.0	1	1.1	1.0				
	86	1	66.0	0.0	0.0	2142.4	1	1.04	-11.0	345.0	1	1.05	0.95				
	87	1	105.0	11.6	0.0	0.0	41	1.09	-19.0	500.0	1	1.1	1.0				
	90	1	0.0	0.0	0.0	0.0	1	1.009	-47.0	345.0	1	1.05	0.95				
	91	1	0.0	0.0	0.0	0.0	1	0.999	-50.0	13.8	1	1.05	0.95				
	92	1	0.0	0.0	0.0	0.0	1	1.073	10.1	500.0	1	1.1	1.0				
	93	1	0.0	0.0	0.0	0.0	1	1.083	10.8	500.0	1	1.1	1.0				
	94	1	0.0	0.0	0.0	0.0	1	1.083	10.8	500.0	1	1.1	1.0				
	95	1	0.0	0.0	0.0	0.0	1	0.999	-50.0	13.8	1	1.05	0.95				
	96	1	0.0	0.0	0.0	0.0	1	0.999	-50.0	13.8	1	1.05	0.95				
	97	1	0.0	0.0	0.0	0.0	1	1.025	-19.0	345.0	1	1.05	0.95				
	98	1	0.0	0.0	0.0	0.0	1	1.001	-33.0	138.0	1	1.05	0.95				
	99	1	0.0	0.0	0.0	0.0	1	1.022	4.53	525.0	1	1.048	0.95				
	100	1	0.0	0.0	0.0	0.0	1	1.073	14.3	500.0	1	1.1	1.0				
	101	1	0.0	0.0	0.0	0.0	1	1.073	4.53	500.0	1	1.1	1.0				
	102	1	0.0	0.0	0.0	0.0	1	1.064	-4.0	500.0	1	1.1	1.0				
	103	1	0.0	0.0	0.0	0.0	1	1.06	-8.1	500.0	1	1.1	1.0				
	104	1	0.0	0.0	0.0	0.0	1	1.093	-16.0	500.0	1	1.1	1.0				
	105	1	0.0	0.0	0.0	0.0	1	1.078	-21.0	500.0	1	1.1	1.0				
	106	1	0.0	0.0	0.0	0.0	1	1.07	-23.0	500.0	1	1.1	1.0				
	107	1	0.0	0.0	0.0	0.0	1	1.064	-26.0	500.0	1	1.1	1.0				
	108	1	0.0	0.0	0.0	0.0	1	1.058	-25.0	500.0	1	1.1	1.0				
	109	1	0.0	0.0	0.0	0.0	1	1.071	-23.0	500.0	1	1.1	1.0				
	110	1	0.0	0.0	0.0	0.0	1	1.01	-29.999999999999996	991.0	1	1.9	0.4				
	111	1	0.0	0.0	0.0	0.0	1	1.016	-48.00000000000001	13.8	1	1.05	0.95				
	112	1	0.0	0.0	0.0	0.0	1	1.081	-14.999999999999998	500.0	1	1.1	1.0				
	113	1	0.0	0.0	0.0	0.0	1	1.081	-14.999999999999998	500.0	1	1.1	1.0				
	114	1	0.0	0.0	0.0	0.0	43	1.081	-14.999999999999998	13.2	1	1.05	0.95				
	115	1	0.0	0.0	0.0	0.0	43	1.013	-22.0	500.0	1	1.1	1.0				
	116	1	0.0	0.0	0.0	0.0	1	1.024	-34.0	138.0	1	1.05	0.95				
	118	1	0.0	0.0	0.0	0.0	1	0.985	11.7	991.0	1	1.9	0.4				
	119	1	0.0	0.0	0.0	0.0	1	0.985	11.7	13.2	1	1.05	0.95				
	120	1	0.0	0.0	0.0	0.0	1	1.023	-8.7	345.0	1	1.05	0.95				
	121	1	0.0	0.0	0.0	0.0	1	0.993	-9.8	991.0	1	1.9	0.4				
	122	1	0.0	0.0	0.0	0.0	1	1.08	-12.000000000000002	500.0	1	1.1	1.0				
	123	1	0.0	0.0	0.0	100.0	1	1.024	-12.000000000000002	345.0	1	1.05	0.95				
	124	1	0.0	0.0	0.0	0.0	1	1.008	-13.0	991.0	1	1.9	0.4				
	125	1	0.0	0.0	0.0	0.0	1	1.016	-9.0	500.0	1	1.1	1.0				
	126	1	0.0	0.0	0.0	250.0	1	1.026	-19.0	345.0	1	1.05	0.95				
	127	1	0.0	0.0	0.0	0.0	1	1.042	-17.0	345.0	1	1.05	0.95				
	128	1	0.0	0.0	0.0	0.0	1	1.042	-17.0	345.0	1	1.05	0.95				
	129	1	0.0	0.0	0.0	0.0	1	1.043	-18.0	345.0	1	1.05	0.95				
	130	1	0.0	0.0	0.0	0.0	1	1.016	-9.0	500.0	1	1.1	1.0				
	131	1	0.0	0.0	0.0	0.0	1	1.005	4.73	345.0	1	1.05	0.95				
	133	1	0.0	0.0	0.0	0.0	1	1.001	-32.0	991.0	1	1.9	0.4				
	134	1	0.0	0.0	0.0	0.0	1	1.006	5.39	345.0	1	1.05	0.95				
	135	1	0.0	0.0	0.0	0.0	1	1.0	-33.0	991.0	1	1.9	0.4				
	136	1	0.0	0.0	0.0	0.0	1	1.005	-4.0	345.0	1	1.05	0.95				
	137	1	0.0	0.0	0.0	0.0	1	1.0	-33.0	991.0	1	1.9	0.4				
	138	1	0.0	0.0	0.0	-60.0	1	1.003	-20.0	345.0	1	1.05	0.95				
	139	1	0.0	0.0	0.0	0.0	1	1.02	-28.0	991.0	1	1.9	0.4				
	140	1	0.0	0.0	0.0	325.0	1	1.02	-28.0	345.0	1	1.05	0.95				
	141	1	0.0	0.0	0.0	0.0	1	1.02	-29.000000000000004	991.0	1	1.9	0.4				
	142	1	0.0	0.0	0.0	0.0	1	1.021	-29.000000000000004	991.0	1	1.9	0.4				
	143	1	0.0	0.0	0.0	0.0	1	1.005	-32.0	991.0	1	1.9	0.4				
	144	1	0.0	0.0	0.0	0.0	1	1.011	-29.999999999999996	345.0	1	1.05	0.95				
	145	1	0.0	0.0	0.0	0.0	1	0.997	-33.0	991.0	1	1.9	0.4				
	146	1	0.0	0.0	0.0	0.0	1	1.0	-33.0	991.0	1	1.9	0.4				
	147	1	0.0	0.0	0.0	-60.0	1	1.02	-42.0	345.0	1	1.05	0.95				
	148	1	0.0	0.0	0.0	0.0	1	1.005	-45.0	991.0	1	1.9	0.4				
	149	1	0.0	0.0	0.0	0.0	1	1.019	-48.00000000000001	345.0	1	1.05	0.95				
	150	1	0.0	0.0	0.0	0.0	1	1.019	-50.0	991.0	1	1.9	0.4				
	151	1	0.0	0.0	0.0	0.0	1	0.981	-48.00000000000001	13.8	1	1.05	0.95				
	152	1	0.0	0.0	0.0	0.0	1	1.019	-50.0	991.0	1	1.9	0.4				
	153	1	0.0	0.0	0.0	0.0	1	1.019	-50.0	991.0	1	1.9	0.4				
	154	1	0.0	0.0	0.0	20.0	1	1.054	-50.0	13.8	1	1.05	0.95				
	155	1	0.0	0.0	0.0	20.0	1	1.054	-50.0	13.8	1	1.05	0.95				
	156	1	0.0	0.0	0.0	20.0	1	1.054	-50.0	13.8	1	1.05	0.95				
	157	1	0.0	0.0	0.0	60.0	1	1.021	-42.0	345.0	1	1.05	0.95				
	158	1	0.0	0.0	0.0	0.0	1	1.02	-50.0	991.0	1	1.9	0.4				
	159	1	0.0	0.0	0.0	0.0	1	1.0	-33.0	13.2	1	1.05	0.95				
	160	1	0.0	0.0	0.0	0.0	1	1.0	-33.0	13.2	1	1.05	0.95				
	161	1	0.33	0.0	0.0	0.0	1	1.019	-19.0	230.0	1	1.05	0.95				
	162	1	0.0	0.0	0.0	0.0	1	1.01	-14.999999999999998	991.0	1	1.9	0.4				
	163	1	0.0	0.0	0.0	-25.0	1	0.98	-14.999999999999998	13.2	1	1.05	0.95				
	164	1	0.0	0.0	0.0	0.0	1	1.063	-11.0	991.0	1	1.9	0.4				
	165	1	0.0	0.0	0.0	-25.0	1	1.029	-11.0	13.8	1	1.05	0.95				
	166	1	0.0	0.0	0.0	0.0	1	1.0	-33.0	991.0	1	1.9	0.4				
	167	1	0.0	0.0	0.0	0.0	1	1.0	-33.0	13.2	1	1.05	0.95				
	168	1	0.0	0.0	0.0	0.0	1	1.011	11.9	230.0	1	1.05	0.95				
	169	1	0.0	0.0	0.0	500.0	1	1.027	-32.0	138.0	1	1.05	0.95				
	170	1	0.0	0.0	0.0	0.0	1	1.032	-10.0	138.0	1	1.05	0.95				
	171	1	1.01	0.0	0.0	0.0	1	1.016	-14.999999999999998	138.0	1	1.05	0.95				
	172	1	0.0	0.0	0.0	0.0	1	1.004	-34.0	138.0	1	1.05	0.95				
	173	1	0.0	0.0	0.0	0.0	1	1.043	-32.0	138.0	1	1.05	0.95				
	174	1	0.0	0.0	0.0	150.0	1	0.995	-46.0	138.0	1	1.05	0.95				
	175	1	0.25	0.0	0.0	50.0	1	1.023	-45.0	138.0	1	1.05	0.95				
	176	1	0.0	0.0	0.0	0.0	1	1.005	-13.0	991.0	1	1.9	0.4				
	177	1	0.0	0.0	0.0	0.0	1	1.01	-50.0	138.0	1	1.05	0.95				
	178	1	0.0	0.0	0.0	0.0	1	1.01	-29.999999999999996	138.0	1	1.05	0.95				
	179	1	0.0	0.0	0.0	0.0	1	1.01	-29.999999999999996	991.0	1	1.9	0.4				
	180	1	0.0	0.0	0.0	200.0	1	1.001	-33.0	138.0	1	1.05	0.95				
	181	1	0.0	0.0	0.0	0.0	1	1.012	-26.0	138.0	1	1.05	0.95				
	182	1	0.0	0.0	0.0	0.0	1	1.009	-31.0	138.0	1	1.05	0.95				
	183	1	0.0	0.0	0.0	0.0	1	1.033	-19.0	138.0	1	1.05	0.95				
	184	1	0.0	0.0	0.0	0.0	1	1.008	-31.0	138.0	1	1.05	0.95				
	185	1	3.0	1.45	0.0	25.0	1	1.013	-23.0	138.0	1	1.05	0.95				
	186	1	0.0	0.0	0.0	0.0	1	1.005	-13.0	13.8	1	1.05	0.95				
	187	1	0.0	0.0	0.0	0.0	1	1.038	3.42	138.0	1	1.05	0.95				
	189	1	0.0	0.0	0.0	0.0	1	1.053	5.69	991.0	1	1.9	0.4				
	190	1	0.0	0.0	0.0	0.0	1	1.023	21.4	138.0	1	1.05	0.95				
	192	1	0.0	0.0	0.0	20.0	1	1.0	-45.0	13.8	1	1.05	0.95				
	193	1	0.0	0.0	0.0	-25.0	1	1.0	-45.0	13.8	1	1.05	0.95				
	194	1	0.0	0.0	0.0	0.0	1	1.021	-29.000000000000004	13.8	1	1.05	0.95				
	195	1	2.31	0.0	0.0	20.0	1	1.058	-29.000000000000004	13.8	1	1.05	0.95				
	196	1	0.0	0.0	0.0	-50.0	1	0.924	-13.0	13.8	1	1.05	0.95				
	197	1	0.0	0.0	0.0	0.0	1	1.02	-28.0	13.8	1	1.05	0.95				
	198	1	1.17	0.0	0.0	-50.0	1	0.91	-9.9	13.8	1	1.05	0.95				
	199	1	0.42	0.0	0.0	20.0	1	1.054	-50.0	13.8	1	1.05	0.95				
	200	1	0.0	0.0	0.0	0.0	1	1.011	-46.0	991.0	1	1.9	0.4				
	201	2	1.16	0.0	0.0	0.0	1	1.011	-46.0	992.0	1	1.05	0.95				
	202	1	0.0	0.0	0.0	0.0	1	1.007	-46.0	991.0	1	1.9	0.4				
	203	1	1.16	0.0	0.0	0.0	1	1.007	-46.0	992.0	1	1.05	0.95				
	204	1	0.0	0.0	0.0	0.0	1	0.997	-33.0	13.8	1	1.05	0.95				
	205	1	0.0	0.0	0.0	50.0	1	1.054	-33.0	13.8	1	1.05	0.95				
	206	1	0.0	0.0	0.0	50.0	1	1.048	-32.0	13.8	1	1.05	0.95				
	208	1	0.0	0.0	0.0	0.0	1	1.053	5.69	13.8	1	1.05	0.95				
	209	1	0.0	0.0	0.0	0.0	1	1.001	-32.0	13.2	1	1.05	0.95				
	210	1	0.0	0.0	0.0	-136.0	1	1.064	18.9	500.0	1	1.1	1.0				
	211	1	0.0	0.0	0.0	0.0	1	1.006	-44.0	991.0	1	1.9	0.4				
	212	1	0.0	0.0	0.0	20.0	1	1.001	-44.0	13.8	1	1.05	0.95				
	213	1	0.0	0.0	0.0	0.0	1	1.001	12.1	345.0	1	1.05	0.95				
	214	1	0.0	0.0	0.0	0.0	1	1.025	11.5	991.0	1	1.9	0.4				
	215	1	0.0	0.0	0.0	-25.0	1	1.001	-44.0	13.8	1	1.05	0.95				
	216	1	0.0	0.0	0.0	0.0	1	1.008	9.65	345.0	1	1.05	0.95				
	217	1	0.0	0.0	0.0	0.0	1	1.017	18.3	345.0	1	1.05	0.95				
	218	1	0.0	0.0	0.0	-28.499999999999996	1	0.998	13.0	345.0	1	1.05	0.95				
	219	1	0.0	0.0	0.0	0.0	1	1.031	11.5	345.0	1	1.05	0.95				
	220	1	0.0	0.0	0.0	0.0	1	1.018	18.8	345.0	1	1.05	0.95				
	221	1	0.0	0.0	0.0	0.0	1	1.007	5.92	34.5	1	1.05	0.95				
	222	1	0.0	0.0	0.0	0.0	1	1.033	9.74	991.0	1	1.9	0.4				
	223	1	0.0	0.0	0.0	0.0	1	0.983	11.6	991.0	1	1.9	0.4				
	224	1	0.0	0.0	0.0	0.0	1	0.982	11.6	991.0	1	1.9	0.4				
	225	1	0.0	0.0	0.0	0.0	1	1.006	19.4	230.0	1	1.05	0.95				
	226	1	0.28	0.0	0.0	0.0	1	1.011	11.9	230.0	1	1.05	0.95				
	227	1	0.0	0.0	0.0	0.0	1	1.032	9.95	230.0	1	1.05	0.95				
	228	1	0.0	0.0	0.0	0.0	1	1.033	10.1	230.0	1	1.05	0.95				
	229	1	0.54	0.0	0.0	0.0	1	1.006	3.5900000000000003	230.0	1	1.05	0.95				
	230	1	0.0	0.0	0.0	0.0	1	1.019	17.0	230.0	1	1.05	0.95				
...
];

%% generator data
%    bus    Pg    Qg    Qmax    Qmin    Vg    mBase    status    Pmax    Pmin    Pc1    Pc2    Qc1min    Qc1max    Qc2min    Qc2max    ramp_agc    ramp_10    ramp_30    ramp_q    apf
mpc.gen = [
	9682	0.0	0.0	0.0	0.0	1.001	100.0	1	99999.0	0.0															
	928	0.0	0.0	0.0	0.0	1.004	100.0	1	0.0	0.0															
	1863	30.0	-2.41	8.6	-8.6	0.996	100.0	1	30.0	30.0															
	2631	6.1	0.0	0.0	0.0	1.001	100.0	0	99999.0	0.0															
	7064	1055.0	505.69999999999993	861.5999999999999	-861.9999999999999	1.021	100.0	1	1055.0	1055.0															
	3153	0.3	2.8	0.0	0.0	1.002	100.0	0	99999.0	0.0															
	17	0.0	0.0	0.0	0.0	1.007	100.0	1	0.0	0.0															
	9881	4.4	1.0e-9	0.0	0.0	1.013	100.0	0	99999.0	0.0															
	9802	6.0	0.0	0.0	0.0	1.008	100.0	0	99999.0	0.0															
	6057	23.3	0.0	0.0	0.0	0.984	100.0	1	99999.0	0.0															
	9954	4.2	0.0	0.0	0.0	1.014	100.0	0	99999.0	0.0															
	6423	0.0	0.0	0.0	0.0	1.011	100.0	1	0.0	0.0															
	14	210.0	20.71	150.0	-150.0	1.015	100.0	1	210.0	210.0															
	5413	27.500000000000004	0.0	0.0	0.0	1.014	100.0	0	27.500000000000004	27.500000000000004															
	510	1247.0	-3.35	540.0	-540.0	1.01	100.0	1	1340.0	0.0															
	3963	248.0	-9.98	180.0	-110.00000000000001	1.018	100.0	1	248.0	248.0															
	401	15.0	28.76	88.0	-101.0	0.98	100.0	1	15.0	15.0															
	21	204.99999999999997	-7.8100000000000005	84.0	-80.0	0.975	100.0	1	204.99999999999997	204.99999999999997															
	6016	5.8	0.0	0.0	0.0	1.009	100.0	1	99999.0	0.0															
	6598	16.0	0.0	0.0	0.0	0.987	100.0	1	16.0	16.0															
	2276	6.3	0.0	0.0	0.0	1.013	100.0	1	6.3	6.3															
	751	99.0	2.255	50.0	-50.0	0.986	100.0	1	99.0	99.0															
	1070	644.7	43.19	141.0	-141.0	1.016	100.0	1	644.7	644.7															
	3749	27.0	-2.13	14.499999999999998	-14.499999999999998	0.988	100.0	1	27.0	27.0															
	1166	85.0	3.7060000000000004	42.0	-30.0	1.005	100.0	1	85.0	85.0															
	9801	6.0	0.0	0.0	0.0	1.008	100.0	0	99999.0	0.0															
	2863	82.0	15.47	44.0	-44.0	0.999	100.0	1	82.0	82.0															
	9126	0.0	0.0	0.0	0.0	1.011	100.0	1	99999.0	0.0															
	6324	0.0	0.0	0.0	0.0	0.987	100.0	1	0.0	0.0															
	5051	642.0	-161.0	250.0	-240.0	1.014	100.0	1	642.0	642.0															
	9157	1.2	0.0	0.0	0.0	1.019	100.0	0	99999.0	0.0															
	6164	81.0	0.0	0.0	0.0	1.01	100.0	1	81.0	81.0															
	3744	28.999999999999996	0.028199999999999996	15.479999999999999	-15.5	0.991	100.0	1	28.999999999999996	28.999999999999996															
	6129	30.0	0.0	0.0	0.0	1.084	100.0	1	99999.0	0.0															
	1704	7.8	0.0	0.0	0.0	0.97	100.0	0	7.8	7.8															
	99152	0.67	0.0	0.22	-0.22	1.02	100.0	1	99999.0	0.0															
	6133	29.4	0.0	0.0	0.0	1.004	100.0	0	99999.0	0.0															
	99149	2.53	0.83	0.83	-0.83	1.02	100.0	1	99999.0	0.0															
	8267	3.0	0.0	0.0	0.0	1.003	100.0	1	99999.0	0.0															
	3969	0.0	3.0e-10	0.0	0.0	1.005	100.0	1	0.0	0.0															
	994	0.9000000000000001	0.0	0.0	0.0	1.002	100.0	0	99999.0	0.0															
	315	0.0	3.337	30.0	-15.0	1.011	100.0	1	0.0	0.0															
	841	0.5	0.0	0.0	0.0	1.001	100.0	0	99999.0	0.0															
	4802	19.0	1.372	8.1	-8.1	1.009	100.0	1	19.0	19.0															
	984	9.0	0.05099999999999999	4.0	-5.0	0.996	100.0	1	99999.0	0.0															
	9451	38.0	0.0	0.0	0.0	1.003	100.0	1	38.0	38.0															
	3104	18.1	0.0	0.0	0.0	0.966	100.0	1	18.1	18.1															
	9769	74.4	0.0	0.0	0.0	0.988	100.0	1	74.4	74.4															
	1176	56.3	4.476	26.0	-33.0	0.99	100.0	1	56.3	56.3															
	8911	0.0	0.0	0.0	0.0	1.011	100.0	1	99999.0	0.0															
	6589	0.0	0.0	0.0	0.0	1.009	100.0	1	0.0	0.0															
	5803	0.0	0.0	0.0	0.0	1.018	100.0	1	99999.0	0.0															
	9734	6.0	0.0	0.0	0.0	1.012	100.0	0	99999.0	0.0															
	2918	17.6	-1.7500000000000002	7.000000000000001	-7.000000000000001	0.996	100.0	1	17.6	17.6															
	4454	0.0	0.0	0.0	0.0	1.014	100.0	1	0.0	0.0															
	9809	5.5	0.0	0.0	0.0	1.007	100.0	0	99999.0	0.0															
	4168	0.0	0.0	0.0	0.0	1.002	100.0	1	0.0	0.0															
	2917	19.0	-8.78	9.5	-9.5	1.03	100.0	1	19.0	19.0															
	4010	0.9000000000000001	1.0e-10	0.0	0.0	0.977	100.0	0	99999.0	0.0															
	3725	0.0	0.0	0.0	0.0	0.995	100.0	1	99999.0	0.0															
	1774	3.1	0.0	0.0	0.0	1.011	100.0	1	3.1	3.1															
	6073	71.1	-23.6	-23.6	-23.6	1.036	100.0	1	99999.0	0.0															
	7206	855.0000000000001	6.028	285.0	-285.0	0.988	100.0	1	855.0000000000001	855.0000000000001															
	9768	82.0	0.0	0.0	0.0	0.999	100.0	1	82.0	82.0															
	5280	10.5	0.0	0.0	0.0	1.002	100.0	1	99999.0	0.0															
	1501	90.0	18.67	44.0	-44.0	0.991	100.0	1	90.0	90.0															
	4834	28.999999999999996	-6.800000000000001	12.8	-12.8	0.994	100.0	1	28.999999999999996	28.999999999999996															
	1594	111.00000000000001	12.920000000000002	37.2	-40.0	1.004	100.0	1	111.00000000000001	111.00000000000001															
	2601	25.0	5.061	15.2	-15.2	0.979	100.0	1	25.0	25.0															
	4061	24.5	1.0e-8	0.0	0.0	1.018	100.0	0	24.5	24.5															
	6074	43.0	0.0	0.0	0.0	0.98	100.0	1	99999.0	0.0															
	4157	0.0	0.0	0.0	0.0	1.015	100.0	1	0.0	0.0															
	9169	6.0	0.0	0.0	0.0	1.01	100.0	0	99999.0	0.0															
	922	0.0	6.939000000000001	130.0	-125.0	0.998	100.0	1	0.0	0.0															
	9784	26.0	-0.277	14.249999999999998	-9.72	1.004	100.0	1	99999.0	0.0															
	3197	1.5	-0.1	0.0	0.0	1.009	100.0	0	1.5	1.5															
	9940	4.6	0.0	0.0	0.0	1.0	100.0	0	99999.0	0.0															
	4463	0.0	0.0	0.0	0.0	1.012	100.0	1	0.0	0.0															
	9160	4.5	0.0	0.0	0.0	1.019	100.0	0	99999.0	0.0															
	6492	15.5	0.0	0.0	0.0	0.984	100.0	0	99999.0	0.0															
	3465	16.1	4.0e-8	0.0	0.0	1.001	100.0	0	16.1	16.1															
	6627	0.0	0.0	0.0	0.0	0.995	100.0	1	99999.0	0.0															
	9582	0.0	0.0	0.0	0.0	1.004	100.0	1	99999.0	0.0															
	4525	90.0	-3.42	47.6	-74.0	0.97	100.0	1	90.0	90.0															
	4466	0.0	0.0	0.0	0.0	1.012	100.0	1	0.0	0.0															
	9	0.0	0.0	0.0	0.0	1.026	100.0	1	99999.0	0.0															
	6372	29.2	0.0	0.0	0.0	0.981	100.0	1	99999.0	0.0															
	4073	2.7	0.0	0.0	0.0	0.994	100.0	0	2.7	2.7															
	9811	6.0	1.0e-9	0.0	0.0	1.007	100.0	0	99999.0	0.0															
	4520	167.0	-24.2	60.0	-57.9	0.971	100.0	1	167.0	167.0															
	5078	45.2	0.0	0.0	0.0	0.982	100.0	1	99999.0	0.0															
	1528	28.9	0.0	0.0	0.0	1.0	100.0	0	99999.0	0.0															
	2107	0.8	0.0	0.0	0.0	1.017	100.0	0	0.8	0.8															
	6347	0.0	-6.14	30.0	-15.0	0.997	100.0	1	0.0	0.0															
	2716	7.5	0.0	0.0	0.0	1.001	100.0	0	99999.0	0.0															
	2851	3.2	8.0e-9	0.0	0.0	0.994	100.0	0	99999.0	0.0															
	4631	24.0	-6.74	10.2	-10.2	0.995	100.0	1	24.0	24.0															
	526	81.0	-29.2	52.0	-52.0	0.975	100.0	1	81.0	81.0															
	5593	5.0	0.0	0.0	0.0	1.016	100.0	1	99999.0	0.0															
	5218	0.0	0.0	0.0	0.0	0.961	100.0	1	99999.0	0.0															
	4621	4.0	0.0	0.0	0.0	1.01	100.0	1	4.0	4.0															
	6313	41.3	0.0	0.0	0.0	1.015	100.0	1	99999.0	0.0															
	4255	0.0	0.0	0.0	0.0	0.97	100.0	1	0.0	0.0															
	826	20.7	0.0	0.0	0.0	0.974	100.0	0	20.7	20.7															
	516	129.0	48.27	56.00000000000001	-56.00000000000001	1.044	100.0	1	129.0	129.0															
	6597	22.5	0.48840000000000006	7.200000000000001	-7.200000000000001	0.998	100.0	1	22.5	22.5															
	9955	4.6	0.0	0.0	0.0	1.014	100.0	0	99999.0	0.0															
	9455	0.0	0.0	0.0	0.0	0.943	100.0	1	0.0	0.0															
	9732	6.0	0.0	0.0	0.0	1.012	100.0	0	99999.0	0.0															
	4418	0.0	0.0	0.0	0.0	1.006	100.0	1	0.0	0.0															
	5653	63.6	0.0	0.0	0.0	1.003	100.0	0	63.6	63.6															
	3455	0.6	0.0	0.0	0.0	1.018	100.0	0	0.6	0.6															
	5032	52.0	12.58	48.0	-43.0	0.988	100.0	1	140.0	0.0															
	4614	15.0	0.0	0.0	0.0	1.032	100.0	1	15.0	15.0															
	4827	8.7	0.2423	5.0	-5.0	1.006	100.0	1	99999.0	0.0															
	4489	660.0	137.5	335.0	-335.0	1.045	100.0	1	99999.0	0.0															
	32	0.0	0.0	0.0	0.0	1.008	100.0	1	0.0	0.0															
	6618	22.6	0.0	0.0	0.0	0.984	100.0	1	99999.0	0.0															
	2335	11.7	0.0	0.0	0.0	1.018	100.0	1	11.7	11.7															
	3783	16.0	0.0	0.0	0.0	1.044	100.0	0	99999.0	0.0															
	836	6.5	0.0	0.0	0.0	1.006	100.0	0	6.5	6.5															
	6593	0.0	0.0	0.0	0.0	0.993	100.0	1	0.0	0.0															
	37	0.0	0.0	0.0	0.0	1.011	100.0	1	0.0	0.0															
	2031	40.0	4.284	21.6	-23.4	1.013	100.0	1	40.0	40.0															
	4403	13.3	-1.34	6.4399999999999995	-6.4399999999999995	0.996	100.0	1	99999.0	0.0															
	2449	0.8	0.0	0.0	0.0	1.015	100.0	0	0.8	0.8															
	7072	30.0	0.0	0.0	0.0	0.975	100.0	0	99999.0	0.0															
	10012	28.800000000000004	0.0	0.0	0.0	1.027	100.0	0	99999.0	0.0															
	5012	0.0	0.0	0.0	0.0	1.012	100.0	1	0.0	0.0															
	2254	0.9000000000000001	0.0	0.0	0.0	0.98	100.0	1	0.9000000000000001	0.9000000000000001															
	4136	0.0	0.0	0.0	0.0	1.014	100.0	1	0.0	0.0															
	4190	0.0	0.0	0.0	0.0	1.009	100.0	1	0.0	0.0															
	513	484.0	-115.99999999999999	240.0	-240.0	0.996	100.0	1	484.0	484.0															
	2818	3.6000000000000005	2.0e-8	0.0	0.0	0.998	100.0	0	99999.0	0.0															
	2622	3.2	0.0	0.0	0.0	1.014	100.0	0	99999.0	0.0															
	9100	68.0	11.86	120.0	-120.0	0.996	100.0	1	68.0	68.0															
	4422	0.0	0.0	0.0	0.0	1.006	100.0	1	0.0	0.0															
	806	76.8	7.227	28.999999999999996	-28.999999999999996	0.978	100.0	1	76.8	76.8															
	2977	18.0	0.0	0.0	0.0	1.016	100.0	0	18.0	18.0															
	5682	6.800000000000001	0.0	0.0	0.0	0.967	100.0	1	99999.0	0.0															
	1155	225.0	31.65	122.0	-120.0	1.001	100.0	1	225.0	225.0															
	9816	4.0	0.0	0.0	0.0	1.02	100.0	0	99999.0	0.0															
	9948	2.0	0.0	0.0	0.0	1.037	100.0	0	99999.0	0.0															
	5522	53.0	2.086	74.0	-80.0	1.007	100.0	1	53.0	53.0															
	9884	2.8	0.0	0.0	0.0	1.014	100.0	0	99999.0	0.0															
	921	263.9	24.7	85.0	-24.0	1.005	100.0	1	263.9	263.9															
	9998	45.5	36.01	43.95	-13.0	0.973	100.0	1	99999.0	0.0															
	6812	6.3	0.0	0.0	0.0	1.039	100.0	1	6.3	6.3															
	2350	6.7	0.0	0.0	0.0	0.955	100.0	0	6.7	6.7															
	5771	0.0	0.0	0.0	0.0	1.001	100.0	1	99999.0	0.0															
	9158	6.0	0.0	0.0	0.0	1.019	100.0	0	99999.0	0.0															
	304	370.0	-20.3	75.0	-75.0	0.968	100.0	1	370.0	370.0															
	6422	1400.0	-59.599999999999994	420.0	-420.0	0.997	100.0	1	1400.0	1400.0															
	1798	23.6	0.0	0.0	0.0	1.022	100.0	1	23.6	23.6															
	809	0.0	5.831	165.0	-250.0	0.998	100.0	1	0.0	0.0															
	9163	4.0	0.0	0.0	0.0	1.011	100.0	0	99999.0	0.0															
	9804	6.0	0.0	0.0	0.0	1.008	100.0	0	99999.0	0.0															
	8904	106.0	25.420000000000005	96.0	-60.0	0.977	100.0	1	106.0	106.0															
	1125	9.5	0.0	0.0	0.0	1.001	100.0	1	9.5	9.5															
	9155	6.0	0.0	0.0	0.0	1.019	100.0	0	99999.0	0.0															
	2803	2.2	8.0e-9	0.0	0.0	1.008	100.0	0	99999.0	0.0															
	1284	1.8000000000000003	0.0	0.0	0.0	0.924	100.0	0	1.8000000000000003	1.8000000000000003															
	505	162.0	5.748	72.0	-72.0	0.992	100.0	1	162.0	162.0															
	4222	0.0	0.0	0.0	0.0	1.013	100.0	1	0.0	0.0															
	5463	6.3	0.0	0.0	0.0	1.018	100.0	0	6.3	6.3															
	4117	0.0	0.0	0.0	0.0	1.028	100.0	1	0.0	0.0															
	4513	2.0	0.0	0.0	0.0	1.011	100.0	0	99999.0	0.0															
	6424	1480.0	-144.0	472.0	-472.0	0.985	100.0	1	1480.0	1480.0															
	6317	29.4	0.0	0.0	0.0	1.01	100.0	0	99999.0	0.0															
	9045	50.0	18.7	0.0	0.0	1.011	100.0	0	50.0	50.0															
	6042	6.800000000000001	0.0	0.0	0.0	0.977	100.0	1	99999.0	0.0															
	5764	0.0	0.0	0.0	0.0	0.995	100.0	1	99999.0	0.0															
	6136	3.0	0.0	0.0	0.0	1.003	100.0	1	99999.0	0.0															
	2754	7.5	0.0	0.0	0.0	0.983	100.0	0	99999.0	0.0															
	1750	2.5	4.0e-10	0.0	0.0	0.973	100.0	0	2.5	2.5															
	503	197.0	6.011	96.0	-96.0	0.981	100.0	1	197.0	197.0															
	99027	34.5	-3.74	11.3	-11.3	1.04	100.0	1	99999.0	0.0															
	2870	16.0	4.0e-8	0.0	0.0	0.997	100.0	0	99999.0	0.0															
	3154	6.0	1.0	0.0	0.0	0.987	100.0	0	99999.0	0.0															
	5243	20.7	0.0	40.0	0.0	1.019	100.0	1	20.7	20.7															
	5315	0.0	0.0	0.0	0.0	0.956	100.0	1	99999.0	0.0															
	6232	45.0	0.0	0.0	0.0	0.989	100.0	1	99999.0	0.0															
	9812	5.5	0.0	0.0	0.0	1.007	100.0	0	99999.0	0.0															
	5006	71.0	1.311	24.0	-18.0	0.974	100.0	1	0.0	0.0															
	6022	0.0	0.0	0.0	0.0	0.991	100.0	1	99999.0	0.0															
	5279	0.0	0.0	0.0	0.0	1.01	100.0	1	99999.0	0.0															
	5628	22.0	0.0	0.0	0.0	1.018	100.0	0	99999.0	0.0															
	9027	5.2	0.0	0.0	0.0	0.991	100.0	0	99999.0	0.0															
	9863	5.9	0.0	0.0	0.0	1.026	100.0	0	99999.0	0.0															
	5084	0.0	0.0	0.0	0.0	0.956	100.0	1	99999.0	0.0															
	6625	11.5	0.0	0.0	0.0	0.993	100.0	1	99999.0	0.0															
	9034	0.0	0.0	0.0	0.0	1.018	100.0	1	0.0	0.0															
	9650	0.0	0.0	0.0	0.0	1.01	100.0	1	0.0	0.0															
	2905	22.0	-1.7000000000000002	6.5	-6.5	1.002	100.0	1	22.0	22.0															
	6579	31.2	7.896	14.400000000000002	-9.9	1.018	100.0	1	99999.0	0.0															
	4600	22.0	-1.86	11.8	-8.0	1.012	100.0	1	22.0	22.0															
	5609	0.0	0.0	0.0	0.0	0.985	100.0	1	99999.0	0.0															
	1184	0.5	4.0e-9	0.0	0.0	1.003	100.0	0	0.5	0.5															
	500	1102.0	-139.0	450.0	-450.0	1.005	100.0	1	1330.0	0.0															
	4617	5.4	0.0	0.0	0.0	1.026	100.0	1	0.0	0.0															
...
];

%% branch data
%    f_bus    t_bus    r    x    b    rateA    rateB    rateC    ratio    angle    status    angmin    angmax
mpc.branch = [
	2727	2830	0.0184	0.0729	0.019799999999999998	119.0	151.0	119.0	0	0	1	-59.99999999999999	59.99999999999999								
	9263	1037	0.00486	0.0406	0.14648999999999998	572.0	704.0	572.0	0	0	1	-59.99999999999999	59.99999999999999								
	1034	9533	0.0252	0.1211	0.2114	243.00000000000003	306.0	243.00000000000003	0	0	1	-59.99999999999999	59.99999999999999								
	4402	4405	0.1437	0.297	0.00045	20.0	25.0	25.0	0	0	1	-59.99999999999999	59.99999999999999								
	2666	2630	0.0126	0.051399999999999994	0.01373	183.0	183.0	20.0	0	0	1	-59.99999999999999	59.99999999999999								
	866	9699	0.045899999999999996	0.1281	0.034966	60.0	60.0	60.0	0	0	1	-59.99999999999999	59.99999999999999								
	1526	9029	0.022400000000000003	0.05793	0.01423	125.0	160.0	125.0	0	0	1	-59.99999999999999	59.99999999999999								
	5562	5563	0.0	0.0001	0.0	0.0	0.0	36.0	0	0	1	-59.99999999999999	59.99999999999999								
	22021	22731	0.0374	0.09939999999999999	0.0042	50.0	68.0	50.0	0	0	1	-59.99999999999999	59.99999999999999								
	6308	6305	0.008453	0.07495	0.0	0.0	0.0	0.0	0	0	1	-59.99999999999999	59.99999999999999								
	297	455	0.0001	0.0003	6.0e-5	137.0	137.0	194.0	0	0	1	-59.99999999999999	59.99999999999999								
	169	1755	0.016316999999999998	0.095107	0.027197	287.0	304.0	25.0	0	0	1	-59.99999999999999	59.99999999999999								
	1224	1379	0.037200000000000004	0.1253	0.0022	84.0	101.0	75.0	0	0	1	-59.99999999999999	59.99999999999999								
	2301	2310	0.0001	0.0001	0.0	143.0	143.0	143.0	0	0	1	-59.99999999999999	59.99999999999999								
	9808	9811	0.0	1.0e-5	0.0	0.0	0.0	55.00000000000001	0	0	1	-59.99999999999999	59.99999999999999								
	3944	624	0.08551	0.2207	0.054812	95.0	139.0	143.0	0	0	1	-59.99999999999999	59.99999999999999								
	1219	2084	0.0013	0.0045000000000000005	0.0013	108.0	108.0	82.0	0	0	1	-59.99999999999999	59.99999999999999								
	4521	4522	0.015700000000000002	0.0781	0.04249999999999998	173.0	173.0	180.0	0	0	1	-59.99999999999999	59.99999999999999								
	9820	9818	0.0010199999999999999	0.01719	1.2015000000000002	3304.9999999999995	4165.0	4165.0	0	0	1	-59.99999999999999	59.99999999999999								
	855	2495	0.034	0.0989	0.026795	88.0	132.0	50.0	0	0	1	-59.99999999999999	59.99999999999999								
	2554	2545	0.0975	0.2036	0.00031	32.0	35.0	32.0	0	0	0	-59.99999999999999	59.99999999999999								
	3115	3123	0.01187	0.062220000000000004	0.0027900000000000004	159.0	159.0	159.0	0	0	1	-59.99999999999999	59.99999999999999								
	5580	5645	0.000546	0.006750000000000001	-0.6684	2030.0	2557.0	2030.0	0	0	1	-59.99999999999999	59.99999999999999								
	7100	7103	0.0	-0.009519999999999999	0.0	1300.0	1950.0	77.0	0	0	1	-59.99999999999999	59.99999999999999								
	13042	3047	0.001763	0.005124	0.0007000000000000001	127.0	127.0	139.0	0	0	0	-59.99999999999999	59.99999999999999								
	2427	2358	0.0302	0.0872	0.0016300000000000002	34.0	43.0	42.0	0	0	1	-59.99999999999999	59.99999999999999								
	538	572	0.0027069999999999998	0.03357	2.173	1524.0	1524.0	295.0	0	0	1	-59.99999999999999	59.99999999999999								
	1090	1089	0.010029999999999999	0.07649	0.19439999999999996	705.0	868.0	466.0	0	0	1	-59.99999999999999	59.99999999999999								
	23921	3919	0.1521	0.2305	0.0092	38.0	52.0	52.0	0	0	1	-59.99999999999999	59.99999999999999								
	1780	1795	0.010992	0.00807	0.0070999999999999995	120.0	120.0	120.0	0	0	1	-59.99999999999999	59.99999999999999								
	9636	1625	0.0009760000000000001	0.003964	0.0010630000000000001	172.0	206.0	153.0	0	0	1	-59.99999999999999	59.99999999999999								
	392	1582	0.01764	0.0444	0.007890000000000001	182.0	182.0	182.0	0	0	1	-59.99999999999999	59.99999999999999								
	849	9416	0.0526	0.15289999999999998	0.041573	85.0	130.0	90.0	0	0	1	-59.99999999999999	59.99999999999999								
	280	1696	0.005777	0.015489	0.00393	172.0	206.0	97.0	0	0	1	-59.99999999999999	59.99999999999999								
	838	9428	0.0385	0.1165	0.02951	63.0	118.0	88.0	0	0	1	-59.99999999999999	59.99999999999999								
	3329	3338	0.0663	0.1736	0.04152	110.00000000000001	110.00000000000001	103.0	0	0	1	-59.99999999999999	59.99999999999999								
	99170	99203	0.025112000000000002	0.020794999999999998	0.00029	27.399999999999995	27.399999999999995	37.2	0	0	0	-59.99999999999999	59.99999999999999								
	1239	9785	0.0002675	0.0017924999999999998	0.0066719	540.0	540.0	540.0	0	0	1	-59.99999999999999	59.99999999999999								
	1266	9238	0.00957	0.0753	0.06866	90.0	90.0	90.0	0	0	1	-59.99999999999999	59.99999999999999								
	377	4048	0.044703999999999994	0.11563000000000001	0.028437999999999998	125.0	160.0	125.0	0	0	1	-59.99999999999999	59.99999999999999								
	454	600	0.0035870000000000003	0.023555000000000003	0.08710000000000001	478.0	478.0	478.0	0	0	1	-59.99999999999999	59.99999999999999								
	5091	5101	0.00105	0.0090563	0.026871999999999997	348.0	494.00000000000006	348.0	0	0	1	-59.99999999999999	59.99999999999999								
	6608	2241	0.01023	0.02794	0.0076500000000000005	103.0	129.0	103.0	0	0	1	-59.99999999999999	59.99999999999999								
	8567	8568	0.0075	0.0463	0.0009	91.0	113.99999999999999	91.0	0	0	1	-59.99999999999999	59.99999999999999								
	9645	1648	0.001878	0.007632	0.002046	172.0	206.0	172.0	0	0	1	-59.99999999999999	59.99999999999999								
	652	665	0.05379	0.24960000000000002	0.0729	114.99999999999999	114.99999999999999	159.0	0	0	1	-59.99999999999999	59.99999999999999								
	74	76	0.0007000000000000001	0.0175	5.430000000000001	3684.0000000000005	4173.0	4133.0	0	0	1	-59.99999999999999	59.99999999999999								
	9440	370	0.000223	0.0029	0.24542000000000003	2286.0	3013.0	2286.0	0	0	1	-59.99999999999999	59.99999999999999								
	1266	9238	0.00957	0.0753	0.06866	90.0	90.0	90.0	0	0	1	-59.99999999999999	59.99999999999999								
	104	1503	0.0005	0.008199999999999999	0.6936	1855.0	2337.0	1855.0	0	0	1	-59.99999999999999	59.99999999999999								
	2472	2473	0.0085	0.0208	0.005359	68.0	102.0	68.0	0	0	1	-59.99999999999999	59.99999999999999								
	8580	8545	0.36494	0.7182999999999999	0.01126	41.0	51.0	41.0	0	0	1	-59.99999999999999	59.99999999999999								
	289	9635	0.0017399999999999998	0.012159999999999999	0.0070799999999999995	359.0	454.0	118.0	0	0	1	-59.99999999999999	59.99999999999999								
	4001	4002	0.06849999999999999	0.12560000000000002	0.0291	95.6	95.6	95.6	0	0	1	-59.99999999999999	59.99999999999999								
	21922	22007	0.073063	0.1566	0.0063	44.0	60.0	44.0	0	0	1	-59.99999999999999	59.99999999999999								
	9263	9938	0.012	0.075	0.125	340.0	340.0	340.0	0	0	1	-59.99999999999999	59.99999999999999								
	4455	4457	0.01869	0.04562	0.01165	98.0	122.0	750.0	0	0	1	-59.99999999999999	59.99999999999999								
	6358	6171	0.0086	0.08460000000000001	0.289	645.0	753.0	645.0	0	0	1	-59.99999999999999	59.99999999999999								
	6401	6407	0.025539999999999997	0.1382	0.2586	166.0	209.0	75.0	0	0	1	-59.99999999999999	59.99999999999999								
	99062	99184	0.043451000000000004	0.08350199999999999	0.001353	52.6	52.6	52.6	0	0	1	-59.99999999999999	59.99999999999999								
	2751	2760	0.0319	0.0788	0.0213	121.0	121.0	121.0	0	0	1	-59.99999999999999	59.99999999999999								
	187	2264	0.047400000000000005	0.126	0.0294	127.0	127.0	120.0	0	0	1	-59.99999999999999	59.99999999999999								
	2771	2831	0.037200000000000004	0.1252	0.0341	119.0	143.0	119.0	0	0	1	-59.99999999999999	59.99999999999999								
	5262	5474	0.0313	0.10189999999999999	0.024	115.99999999999999	115.99999999999999	115.99999999999999	0	0	1	-59.99999999999999	59.99999999999999								
	2357	2387	0.0183	0.0496	0.001139	77.0	77.0	20.0	0	0	1	-59.99999999999999	59.99999999999999								
	3155	3162	0.0163	0.0435	0.011000000000000001	80.0	108.0	32.0	0	0	1	-59.99999999999999	59.99999999999999								
	4593	4733	0.00489	0.0288	0.0181	296.0	296.0	20.0	0	0	1	-59.99999999999999	59.99999999999999								
	275	3795	0.002189	0.016194	0.0049	269.0	324.0	24.0	0	0	1	-59.99999999999999	59.99999999999999								
	190	2310	0.0226	0.1173	0.034	188.0	225.0	360.0	0	0	1	-59.99999999999999	59.99999999999999								
	326	367	0.005	0.056900000000000006	0.93537	624.0	624.0	624.0	0	0	1	-59.99999999999999	59.99999999999999								
	4743	4749	0.0046700000000000005	0.011399999999999999	0.00291	75.0	75.0	60.0	0	0	1	-59.99999999999999	59.99999999999999								
	9057	9056	0.00872	0.06694	0.00491	159.0	159.0	159.0	0	0	1	-59.99999999999999	59.99999999999999								
	9378	890	0.016200000000000003	0.048600000000000004	0.011691	79.0	127.0	90.0	0	0	1	-59.99999999999999	59.99999999999999								
	3727	237	0.035699999999999996	0.10400000000000001	0.0279	103.0	120.0	103.0	0	0	1	-59.99999999999999	59.99999999999999								
	99227	99228	0.36465000000000003	0.30196	0.004214	27.399999999999995	27.399999999999995	25.8	0	0	1	-59.99999999999999	59.99999999999999								
	760	168	0.0	0.0002	0.0	438.0	438.0	150.0	0	0	1	-59.99999999999999	59.99999999999999								
	5361	5362	0.0003	0.0025	0.0092	540.0	645.0	540.0	0	0	1	-59.99999999999999	59.99999999999999								
	9128	22469	5.0e-5	0.000129	3.2e-5	139.0	163.0	139.0	0	0	0	-59.99999999999999	59.99999999999999								
	5301	5311	0.00231	0.0163	0.058499999999999996	425.0	498.00000000000006	100.0	0	0	1	-59.99999999999999	59.99999999999999								
	1798	1774	0.1399	0.35719999999999996	0.005651000000000001	63.0	63.0	63.0	0	0	1	-59.99999999999999	59.99999999999999								
	60	64	0.0008	0.0189	4.7457	3684.0000000000005	4173.0	3684.0000000000005	0	0	1	-59.99999999999999	59.99999999999999								
	309	1568	0.0377	0.0983	0.023809999999999998	125.0	141.0	125.0	0	0	1	-59.99999999999999	59.99999999999999								
	2633	2679	0.1981	0.2121	0.0026	35.0	35.0	106.0	0	0	1	-59.99999999999999	59.99999999999999								
	4345	9072	0.00046199999999999995	0.0024207	0.0868	300.0	300.0	300.0	0	0	0	-59.99999999999999	59.99999999999999								
	4443	4874	0.0	0.0001	0.0	136.0	170.0	50.0	0	0	1	-59.99999999999999	59.99999999999999								
	2322	3102	0.0176	0.0432	0.0116	103.0	129.0	100.0	0	0	1	-59.99999999999999	59.99999999999999								
	4848	4849	0.1043	0.2553	0.0654	75.0	75.0	15.0	0	0	1	-59.99999999999999	59.99999999999999								
	10033	2365	0.0001	0.0001	0.0001	300.0	420.0	300.0	0	0	1	-59.99999999999999	59.99999999999999								
	17605	3808	0.00885	0.022799999999999997	0.00567	95.0	139.0	95.0	0	0	1	-59.99999999999999	59.99999999999999								
	6655	6066	0.00602	0.06723	0.0728	0.0	0.0	0.0	0	0	1	-59.99999999999999	59.99999999999999								
	5623	99232	0.12221	0.51888	0.009707	92.6	92.6	92.6	0	0	1	-59.99999999999999	59.99999999999999								
	3823	11997	0.003951	0.010198	0.002533	95.0	139.0	95.0	0	0	0	-59.99999999999999	59.99999999999999								
	2209	577	0.01122	0.0277	0.0074	101.0	144.0	101.0	0	0	1	-59.99999999999999	59.99999999999999								
	996	995	2.0e-5	0.00023	0.028999999999999998	1819.0000000000002	1819.0000000000002	1819.0000000000002	0	0	1	-59.99999999999999	59.99999999999999								
	1223	1215	0.0039000000000000003	0.021400000000000002	0.0397	290.0	366.0	366.0	0	0	1	-59.99999999999999	59.99999999999999								
	4773	4622	0.053200000000000004	0.1359	0.0326	100.0	120.0	100.0	0	0	1	-59.99999999999999	59.99999999999999								
	1891	1892	0.0154	0.0366	0.00865	147.0	178.0	124.0	0	0	1	-59.99999999999999	59.99999999999999								
	4570	4531	0.00182	0.027839999999999997	2.3727	2468.0	3031.0	1664.9999999999998	0	0	1	-59.99999999999999	59.99999999999999								
	9590	980	0.026644	0.14732	0.27114	365.0	426.99999999999994	365.0	0	0	1	-59.99999999999999	59.99999999999999								
	2841	2847	0.0052	0.0181	0.0048	143.0	143.0	143.0	0	0	1	-59.99999999999999	59.99999999999999								
	11962	3833	0.0052	0.0137	0.0034999999999999996	95.0	139.0	95.0	0	0	1	-59.99999999999999	59.99999999999999								
	980	1204	0.0010202	0.0052605	0.037664	540.0	631.0	631.0	0	0	1	-59.99999999999999	59.99999999999999								
	11990	3821	0.0098	0.0256	0.0066	95.0	139.0	95.0	0	0	0	-59.99999999999999	59.99999999999999								
	147	3032	0.0033	0.0362	0.6218	747.0	747.0	747.0	0	0	1	-59.99999999999999	59.99999999999999								
	721	11729	0.0464	0.1233	0.0052	46.0	59.0	46.0	0	0	1	-59.99999999999999	59.99999999999999								
	225	749	0.0066	0.0426	0.0757	258.0	318.0	258.0	0	0	1	-59.99999999999999	59.99999999999999								
	3459	459	0.0	0.0001	0.0	0.0	0.0	0.0	0	0	1	-59.99999999999999	59.99999999999999								
	896	999	0.00193	0.024300000000000002	1.8209	2273.0	2401.0	2273.0	0	0	1	-59.99999999999999	59.99999999999999								
	2039	11973	0.01133	0.047889999999999995	0.013999999999999999	206.0	242.0	242.0	0	0	1	-59.99999999999999	59.99999999999999								
	64	65	0.0	-0.00749	0.0	3684.0000000000005	4173.0	3683.0	0	0	1	-59.99999999999999	59.99999999999999								
	3888	21906	0.00034700000000000003	0.000896	0.000222	95.0	139.0	95.0	0	0	1	-59.99999999999999	59.99999999999999								
	11926	3801	0.01505	0.0388	0.009649999999999999	95.0	139.0	95.0	0	0	0	-59.99999999999999	59.99999999999999								
	947	1032	0.0023	0.015300000000000001	0.03142	311.0	327.0	311.0	0	0	1	-59.99999999999999	59.99999999999999								
	5371	5656	2.0e-5	0.006697	0.0091	690.0	690.0	690.0	0	0	1	-59.99999999999999	59.99999999999999								
	2228	2252	0.0008	0.0018	0.00049	103.0	129.0	168.0	0	0	1	-59.99999999999999	59.99999999999999								
	719	170	0.0229	0.0839	0.0227	172.0	191.0	191.0	0	0	1	-59.99999999999999	59.99999999999999								
	5519	5459	0.0047068	0.034373	0.094442	0.0	0.0	0.0	0	0	1	-59.99999999999999	59.99999999999999								
	2076	1280	0.0252	0.0633	0.0172	134.0	162.0	134.0	0	0	1	-59.99999999999999	59.99999999999999								
	7603	27603	0.00037999999999999997	0.000981	0.00024400000000000002	139.0	163.0	139.0	0	0	0	-59.99999999999999	59.99999999999999								
	763	766	0.0057599999999999995	0.027080000000000003	0.044800000000000006	219.0	219.0	220.00000000000003	0	0	1	-59.99999999999999	59.99999999999999								
	1144	541	0.2101	0.5487	0.14029999999999998	93.0	118.0	93.0	0	0	1	-59.99999999999999	59.99999999999999								
	1229	9730	0.0232	0.053899999999999997	0.01218	103.0	131.0	103.0	0	0	1	-59.99999999999999	59.99999999999999								
	4753	4763	0.052199999999999996	0.10310000000000001	0.0254	60.0	60.0	74.0	0	0	1	-59.99999999999999	59.99999999999999								
	21996	3825	0.0004	0.001	0.0002	95.0	139.0	95.0	0	0	0	-59.99999999999999	59.99999999999999								
	9519	19518	0.039676	0.11214	0.00479	89.0	126.0	89.0	0	0	1	-59.99999999999999	59.99999999999999								
	353	4022	0.0161	0.0675	0.01869	182.0	182.0	182.0	0	0	1	-59.99999999999999	59.99999999999999								
	2282	2264	0.05548	0.13385999999999998	0.03578	103.0	129.0	103.0	0	0	1	-59.99999999999999	59.99999999999999								
	8522	8523	0.0	0.0001	0.0	0.0	0.0	0.0	0	0	1	-59.99999999999999	59.99999999999999								
	1644	1645	0.0009	0.0069	0.0021	218.00000000000003	264.0	153.0	0	0	1	-59.99999999999999	59.99999999999999								
	2777	2815	0.0059	0.0203	0.0054	151.0	151.0	151.0	0	0	1	-59.99999999999999	59.99999999999999								
	22026	3127	0.0132	0.021099999999999997	0.0045000000000000005	77.0	77.0	77.0	0	0	1	-59.99999999999999	59.99999999999999								
	1656	1660	0.000819	0.001332	0.03987	111.00000000000001	126.0	194.0	0	0	1	-59.99999999999999	59.99999999999999								
	480	484	0.0060999999999999995	0.030699999999999998	0.0554	265.0	319.0	911.9999999999999	0	0	1	-59.99999999999999	59.99999999999999								
	2344	2127	0.0104	0.0347	0.00936	128.0	162.0	33.0	0	0	1	-59.99999999999999	59.99999999999999								
	2355	2402	0.026000000000000002	0.08529999999999999	0.001598	80.0	110.00000000000001	85.0	0	0	1	-59.99999999999999	59.99999999999999								
	938	955	0.002556	0.029224	3.6039999999999996	2037.0	2037.0	2037.0	0	0	1	-59.99999999999999	59.99999999999999								
	2701	9599	0.0319	0.1097	0.0304	143.0	143.0	143.0	0	0	1	-59.99999999999999	59.99999999999999								
	5711	5721	0.0079	0.0404	0.0758	250.99999999999997	317.0	30.0	0	0	1	-59.99999999999999	59.99999999999999								
	6801	6802	0.10369999999999999	0.1324	0.002387	33.0	41.0	26.0	0	0	1	-59.99999999999999	59.99999999999999								
	1279	1306	0.2588	0.3933	0.00674	38.0	38.0	38.0	0	0	1	-59.99999999999999	59.99999999999999								
	7307	7300	0.0016	0.02273	0.556	2598.0	2598.0	2598.0	0	0	1	-59.99999999999999	59.99999999999999								
	1210	1264	0.00328	0.01542	0.07212	329.0	400.0	400.0	0	0	1	-59.99999999999999	59.99999999999999								
	2778	2777	0.006	0.0203	0.0058	143.0	143.0	143.0	0	0	1	-59.99999999999999	59.99999999999999								
	2261	6598	0.013600000000000001	0.0449	0.011699999999999999	179.0	179.0	179.0	0	0	1	-59.99999999999999	59.99999999999999								
	6880	6840	0.012589999999999999	0.09420999999999999	0.4764	558.0	697.0	558.0	0	0	1	-59.99999999999999	59.99999999999999								
	11737	11738	0.003959	0.010228999999999999	0.0027	108.0	108.0	108.0	0	0	1	-59.99999999999999	59.99999999999999								
	12041	12032	0.0021579999999999998	0.010013000000000001	0.0029	159.0	191.0	159.0	0	0	1	-59.99999999999999	59.99999999999999								
	673	11630	0.042817999999999995	0.1005	0.026699999999999998	139.0	163.0	139.0	0	0	1	-59.99999999999999	59.99999999999999								
	559	589	0.001379	0.017096	1.1065	1524.0	1524.0	1524.0	0	0	1	-59.99999999999999	59.99999999999999								
	3724	3790	0.00655	0.019039999999999998	0.0051	103.0	120.0	103.0	0	0	1	-59.99999999999999	59.99999999999999								
	390	4050	0.0008772000000000001	0.012686999999999999	1.087	2442.0	2598.0	125.0	0	0	1	-59.99999999999999	59.99999999999999								
	1209	9258	0.04689	0.191	0.007169999999999999	54.0	79.0	69.0	0	0	1	-59.99999999999999	59.99999999999999								
	136	367	0.0018	0.0178	0.34299	1132.0	1132.0	1132.0	0	0	1	-59.99999999999999	59.99999999999999								
	3810	692	0.0	0.0001	0.0	0.0	0.0	0.0	0	0	1	-59.99999999999999	59.99999999999999								
	9462	9461	0.019799999999999998	0.0915	0.025939	50.0	50.0	50.0	0	0	1	-59.99999999999999	59.99999999999999								
	568	22592	0.004006	0.014409	0.004	97.0	133.0	133.0	0	0	1	-59.99999999999999	59.99999999999999								
	781	3748	0.0342	0.1014	0.02573	103.0	120.0	103.0	0	0	1	-59.99999999999999	59.99999999999999								
	818	820	0.0019	0.009399999999999999	0.018238	299.0	299.0	299.0	0	0	1	-59.99999999999999	59.99999999999999								
	880	9891	0.027999999999999997	0.0623	0.016026	33.0	85.0	90.0	0	0	1	-59.99999999999999	59.99999999999999								
	807	837	0.057300000000000004	0.16670000000000001	0.04559	134.0	167.0	169.0	0	0	1	-59.99999999999999	59.99999999999999								
	99062	99178	0.057062	0.10966	0.001776	52.6	52.6	51.6	0	0	0	-59.99999999999999	59.99999999999999								
	1387	9676	0.0254	0.0943	0.0014000000000000002	84.0	101.0	84.0	0	0	1	-59.99999999999999	59.99999999999999								
	5721	5724	0.0014000000000000002	0.0074	0.0126	0.0	0.0	250.99999999999997	0	0	1	-59.99999999999999	59.99999999999999								
	11637	11909	0.0194	0.0464	0.011899999999999999	139.0	163.0	139.0	0	0	1	-59.99999999999999	59.99999999999999								
	11653	652	0.040799	0.0958	0.0254	139.0	139.0	139.0	0	0	1	-59.99999999999999	59.99999999999999								
	1006	1010	0.00014000000000000001	0.00074	0.00128	382.0	382.0	382.0	0	0	1	-59.99999999999999	59.99999999999999								
	5254	5461	0.0242	0.1251	0.2322	300.0	357.0	300.0	0	0	1	-59.99999999999999	59.99999999999999								
	8700	8511	0.001974	0.019737	0.075872	775.0	922.0000000000001	775.0	0	0	1	-59.99999999999999	59.99999999999999								
	22016	27610	0.000621	0.004221	0.002173	412.0	483.0	483.0	0	0	1	-59.99999999999999	59.99999999999999								
	2152	2155	0.077	0.1016	0.00154	22.0	24.0	22.0	0	0	1	-59.99999999999999	59.99999999999999								
	568	2122	0.0022	0.0121	0.00363	188.0	191.0	365.0	0	0	1	-59.99999999999999	59.99999999999999								
	3966	147	0.00269	0.02957	0.49942	852.9999999999999	1075.0	88.0	0	0	1	-59.99999999999999	59.99999999999999								
	449	594	0.00046	0.004067	0.0733	896.0000000000001	956.0	956.0	0	0	1	-59.99999999999999	59.99999999999999								
	874	2465	0.06280000000000001	0.18289999999999998	0.049607	79.0	127.0	100.0	0	0	1	-59.99999999999999	59.99999999999999								
	6081	5291	0.0163	0.0852	0.1552	250.99999999999997	317.0	250.99999999999997	0	0	1	-59.99999999999999	59.99999999999999								
	546	657	0.009916000000000001	0.04601	0.0134	114.99999999999999	150.0	114.99999999999999	0	0	1	-59.99999999999999	59.99999999999999								
	3147	22028	0.0001	0.0003	0.0001	101.0	144.0	101.0	0	0	1	-59.99999999999999	59.99999999999999								
	12000	11558	0.0034000000000000002	0.0087	0.0023	80.0	80.0	80.0	0	0	1	-59.99999999999999	59.99999999999999								
	1632	3799	0.0026	0.0106	0.0028499999999999997	172.0	206.0	153.0	0	0	1	-59.99999999999999	59.99999999999999								
	936	1325	0.006710000000000001	0.05258	0.10640000000000001	380.0	380.0	520.0	0	0	1	-59.99999999999999	59.99999999999999								
	11707	11702	0.0022	0.005600000000000001	0.0015	80.0	108.0	80.0	0	0	1	-59.99999999999999	59.99999999999999								
	5411	5621	0.022000000000000002	0.1164	0.203	291.0	291.0	147.0	0	0	1	-59.99999999999999	59.99999999999999								
	2259	2279	0.1349	0.20309999999999997	0.0027700000000000003	34.0	48.0	86.0	0	0	1	-59.99999999999999	59.99999999999999								
	882	887	0.0601	0.1241	0.031254	50.0	92.0	50.0	0	0	1	-59.99999999999999	59.99999999999999								
	539	540	0.0028179999999999998	0.035144	2.2746	1524.0	1524.0	125.0	0	0	1	-59.99999999999999	59.99999999999999								
	2737	2747	0.032799999999999996	0.08960000000000001	0.0017000000000000001	71.0	71.0	48.0	0	0	1	-59.99999999999999	59.99999999999999								
	892	9409	0.008	0.024	0.006086	87.0	132.0	87.0	0	0	1	-59.99999999999999	59.99999999999999								
	669	3106	0.0825	0.21289999999999998	0.0529	139.0	163.0	163.0	0	0	1	-59.99999999999999	59.99999999999999								
	5141	5346	0.00222	0.01129	0.02108	360.0	360.0	360.0	0	0	1	-59.99999999999999	59.99999999999999								
	4409	4870	0.00779	0.01901	0.00485	98.0	122.0	138.0	0	0	1	-59.99999999999999	59.99999999999999								
	9554	9555	0.00196	0.00645	0.00012	54.0	79.0	54.0	0	0	1	-59.99999999999999	59.99999999999999								
	8537	8583	0.007033	0.0001	0.00040800000000000005	86.0	69.0	86.0	0	0	1	-59.99999999999999	59.99999999999999								
	9083	9091	0.03215	0.08317000000000001	0.020409999999999998	125.0	155.0	125.0	0	0	1	-59.99999999999999	59.99999999999999								
	1717	174	0.0632	0.26649999999999996	0.0725	124.0	157.0	157.0	0	0	1	-59.99999999999999	59.99999999999999								
	1760	1759	0.001598	0.0040100000000000005	0.001052	122.0	129.0	129.0	0	0	1	-59.99999999999999	59.99999999999999								
	9539	994	0.05499	0.16574999999999998	0.042190000000000005	123.0	123.0	123.0	0	0	1	-59.99999999999999	59.99999999999999								
	320	360	0.00082	0.01256	0.9899	2442.0	2598.0	2442.0	0	0	1	-59.99999999999999	59.99999999999999								
	534	643	0.054900000000000004	0.248	0.1003	95.0	124.0	124.0	0	0	1	-59.99999999999999	59.99999999999999								
	5502	5501	0.0046	0.0235	0.044000000000000004	329.0	373.0	55.00000000000001	0	0	1	-59.99999999999999	59.99999999999999								
	1655	284	0.0034000000000000002	0.019299999999999998	0.0055000000000000005	218.00000000000003	264.0	112.00000000000001	0	0	1	-59.99999999999999	59.99999999999999								
...
];

%% dcline data
%    f_bus    t_bus    status    Pf    Pt    Qf    Qt    Vf    Vt    Pmin    Pmax    QminF    QmaxF    QminT    QmaxT    loss0    loss1
mpc.dcline = [
	85	86	1	1190.0	1148.8150916666666	-0.0	-0.0	1.025	1.04	-1148.8150916666666	1190.0	-1185.4716907291772	0.0	-1098.6173358829437	0.0	0.0	0.0						
	85	86	1	1190.0	1148.8150916666666	-0.0	-0.0	1.025	1.04	-1148.8150916666666	1190.0	-1185.4716907291772	0.0	-1098.6173358829437	0.0	0.0	0.0						
	85	86	1	1190.0	1148.8150916666666	-0.0	-0.0	1.025	1.04	-1148.8150916666666	1190.0	-1185.4716907291772	0.0	-1098.6173358829437	0.0	0.0	0.0						
	85	86	1	1190.0	1148.8150916666666	-0.0	-0.0	1.025	1.04	-1148.8150916666666	1190.0	-1185.4716907291772	0.0	-1098.6173358829437	0.0	0.0	0.0						
	8001	8004	1	182.8	62.02245590026262	-0.0	-0.0	0.772	1.011	-62.02245590026262	182.8	-182.8	0.0	-62.02245590026262	0.0	0.0	0.0						
	8002	8004	1	228.6	76.88876491773178	-0.0	-0.0	0.764	1.011	-76.88876491773178	228.6	-228.6	0.0	-76.88876491773178	0.0	0.0	0.0						
	8003	8004	1	211.90000000000003	74.07275644603195	-0.0	-0.0	0.767	1.011	-74.07275644603195	211.90000000000003	-211.90000000000003	0.0	-74.07275644603195	0.0	0.0	0.0						
	7055	7057	1	1516.0	1406.83284	-0.0	-0.0	1.037	1.073	-1406.83284	1516.0	-1510.2311623070862	0.0	-1345.3609357369842	0.0	0.0	0.0						
	7055	7057	1	1516.0	1406.83284	-0.0	-0.0	1.037	1.073	-1406.83284	1516.0	-1510.2311623070862	0.0	-1345.3609357369842	0.0	0.0	0.0						
	7055	7057	1	1516.0	1414.8128955555555	-0.0	-0.0	1.037	1.073	-1414.8128955555555	1516.0	-1510.2311623070862	0.0	-1341.7005365461112	0.0	0.0	0.0						
	7055	7057	1	1516.0	1414.8128955555555	-0.0	-0.0	1.037	1.073	-1414.8128955555555	1516.0	-1510.2311623070862	0.0	-1341.7005365461112	0.0	0.0	0.0						
	7059	7054	1	225.0	222.08044982698962	-0.0	-0.0	1.037	1.029	-222.08044982698962	225.0	-221.91426034587707	0.0	-205.90940749451428	0.0	0.0	0.0						
	7059	7054	1	225.0	222.08044982698962	-0.0	-0.0	1.037	1.029	-222.08044982698962	225.0	-221.91426034587707	0.0	-205.90940749451428	0.0	0.0	0.0						
	8100	3010	1	2000.0	1911.05625	-0.0	-0.0	1.067	1.067	-1911.05625	2000.0	-1992.389396183491	0.0	-1827.5521807878838	0.0	0.0	0.0						
	8100	3010	1	2000.0	1911.05625	-0.0	-0.0	1.067	1.067	-1911.05625	2000.0	-1992.389396183491	0.0	-1827.5521807878838	0.0	0.0	0.0						
	8100	9605	1	2000.0	1898.6312500000001	-0.0	-0.0	1.067	1.073	-1898.6312500000001	2000.0	-1992.389396183491	0.0	-1815.670094195043	0.0	0.0	0.0						
	8100	9605	1	2000.0	1898.6312500000001	-0.0	-0.0	1.067	1.073	-1898.6312500000001	2000.0	-1992.389396183491	0.0	-1815.670094195043	0.0	0.0	0.0						
];

%%-----  OPF Data  -----%%
%% cost data
%    1    startup    shutdown    n    x1    y1    ...    xn    yn
%    2    startup    shutdown    n    c(n-1)    ...    c0
mpc.gencost = [
	2	0.0	0.0	2	1.0	0.0
	2	0.0	0.0	2	1.0	0.0
	2	0.0	0.0	2	1.0	0.0
	2	0.0	0.0	2	1.0	0.0
	2	0.0	0.0	2	1.0	0.0
	2	0.0	0.0	2	1.0	0.0
	2	0.0	0.0	2	1.0	0.0
	2	0.0	0.0	2	1.0	0.0
	2	0.0	0.0	2	1.0	0.0
	2	0.0	0.0	2	1.0	0.0
	2	0.0	0.0	2	1.0	0.0
	2	0.0	0.0	2	1.0	0.0
	2	0.0	0.0	2	1.0	0.0
	2	0.0	0.0	2	1.0	0.0
	2	0.0	0.0	2	1.0	0.0
	2	0.0	0.0	2	1.0	0.0
	2	0.0	0.0	2	1.0	0.0
	2	0.0	0.0	2	1.0	0.0
	2	0.0	0.0	2	1.0	0.0
	2	0.0	0.0	2	1.0	0.0
	2	0.0	0.0	2	1.0	0.0
	2	0.0	0.0	2	1.0	0.0
	2	0.0	0.0	2	1.0	0.0
	2	0.0	0.0	2	1.0	0.0
	2	0.0	0.0	2	1.0	0.0
	2	0.0	0.0	2	1.0	0.0
	2	0.0	0.0	2	1.0	0.0
	2	0.0	0.0	2	1.0	0.0
	2	0.0	0.0	2	1.0	0.0
	2	0.0	0.0	2	1.0	0.0
	2	0.0	0.0	2	1.0	0.0
	2	0.0	0.0	2	1.0	0.0
	2	0.0	0.0	2	1.0	0.0
	2	0.0	0.0	2	1.0	0.0
	2	0.0	0.0	2	1.0	0.0
	2	0.0	0.0	2	1.0	0.0
	2	0.0	0.0	2	1.0	0.0
	2	0.0	0.0	2	1.0	0.0
	2	0.0	0.0	2	1.0	0.0
	2	0.0	0.0	2	1.0	0.0
	2	0.0	0.0	2	1.0	0.0
	2	0.0	0.0	2	1.0	0.0
	2	0.0	0.0	2	1.0	0.0
	2	0.0	0.0	2	1.0	0.0
	2	0.0	0.0	2	1.0	0.0
	2	0.0	0.0	2	1.0	0.0
	2	0.0	0.0	2	1.0	0.0
	2	0.0	0.0	2	1.0	0.0
	2	0.0	0.0	2	1.0	0.0
	2	0.0	0.0	2	1.0	0.0
	2	0.0	0.0	2	1.0	0.0
	2	0.0	0.0	2	1.0	0.0
	2	0.0	0.0	2	1.0	0.0
	2	0.0	0.0	2	1.0	0.0
	2	0.0	0.0	2	1.0	0.0
	2	0.0	0.0	2	1.0	0.0
	2	0.0	0.0	2	1.0	0.0
	2	0.0	0.0	2	1.0	0.0
	2	0.0	0.0	2	1.0	0.0
	2	0.0	0.0	2	1.0	0.0
	2	0.0	0.0	2	1.0	0.0
	2	0.0	0.0	2	1.0	0.0
	2	0.0	0.0	2	1.0	0.0
	2	0.0	0.0	2	1.0	0.0
	2	0.0	0.0	2	1.0	0.0
	2	0.0	0.0	2	1.0	0.0
	2	0.0	0.0	2	1.0	0.0
	2	0.0	0.0	2	1.0	0.0
	2	0.0	0.0	2	1.0	0.0
	2	0.0	0.0	2	1.0	0.0
	2	0.0	0.0	2	1.0	0.0
	2	0.0	0.0	2	1.0	0.0
	2	0.0	0.0	2	1.0	0.0
	2	0.0	0.0	2	1.0	0.0
	2	0.0	0.0	2	1.0	0.0
	2	0.0	0.0	2	1.0	0.0
	2	0.0	0.0	2	1.0	0.0
	2	0.0	0.0	2	1.0	0.0
	2	0.0	0.0	2	1.0	0.0
	2	0.0	0.0	2	1.0	0.0
	2	0.0	0.0	2	1.0	0.0
	2	0.0	0.0	2	1.0	0.0
	2	0.0	0.0	2	1.0	0.0
	2	0.0	0.0	2	1.0	0.0
	2	0.0	0.0	2	1.0	0.0
	2	0.0	0.0	2	1.0	0.0
	2	0.0	0.0	2	1.0	0.0
	2	0.0	0.0	2	1.0	0.0
	2	0.0	0.0	2	1.0	0.0
	2	0.0	0.0	2	1.0	0.0
	2	0.0	0.0	2	1.0	0.0
	2	0.0	0.0	2	1.0	0.0
	2	0.0	0.0	2	1.0	0.0
	2	0.0	0.0	2	1.0	0.0
	2	0.0	0.0	2	1.0	0.0
	2	0.0	0.0	2	1.0	0.0
	2	0.0	0.0	2	1.0	0.0
	2	0.0	0.0	2	1.0	0.0
	2	0.0	0.0	2	1.0	0.0
	2	0.0	0.0	2	1.0	0.0
	2	0.0	0.0	2	1.0	0.0
	2	0.0	0.0	2	1.0	0.0
	2	0.0	0.0	2	1.0	0.0
	2	0.0	0.0	2	1.0	0.0
	2	0.0	0.0	2	1.0	0.0
	2	0.0	0.0	2	1.0	0.0
	2	0.0	0.0	2	1.0	0.0
	2	0.0	0.0	2	1.0	0.0
	2	0.0	0.0	2	1.0	0.0
	2	0.0	0.0	2	1.0	0.0
	2	0.0	0.0	2	1.0	0.0
	2	0.0	0.0	2	1.0	0.0
	2	0.0	0.0	2	1.0	0.0
	2	0.0	0.0	2	1.0	0.0
	2	0.0	0.0	2	1.0	0.0
	2	0.0	0.0	2	1.0	0.0
	2	0.0	0.0	2	1.0	0.0
	2	0.0	0.0	2	1.0	0.0
	2	0.0	0.0	2	1.0	0.0
	2	0.0	0.0	2	1.0	0.0
	2	0.0	0.0	2	1.0	0.0
	2	0.0	0.0	2	1.0	0.0
	2	0.0	0.0	2	1.0	0.0
	2	0.0	0.0	2	1.0	0.0
	2	0.0	0.0	2	1.0	0.0
	2	0.0	0.0	2	1.0	0.0
	2	0.0	0.0	2	1.0	0.0
	2	0.0	0.0	2	1.0	0.0
	2	0.0	0.0	2	1.0	0.0
	2	0.0	0.0	2	1.0	0.0
	2	0.0	0.0	2	1.0	0.0
	2	0.0	0.0	2	1.0	0.0
	2	0.0	0.0	2	1.0	0.0
	2	0.0	0.0	2	1.0	0.0
	2	0.0	0.0	2	1.0	0.0
	2	0.0	0.0	2	1.0	0.0
	2	0.0	0.0	2	1.0	0.0
	2	0.0	0.0	2	1.0	0.0
	2	0.0	0.0	2	1.0	0.0
	2	0.0	0.0	2	1.0	0.0
	2	0.0	0.0	2	1.0	0.0
	2	0.0	0.0	2	1.0	0.0
	2	0.0	0.0	2	1.0	0.0
	2	0.0	0.0	2	1.0	0.0
	2	0.0	0.0	2	1.0	0.0
	2	0.0	0.0	2	1.0	0.0
	2	0.0	0.0	2	1.0	0.0
	2	0.0	0.0	2	1.0	0.0
	2	0.0	0.0	2	1.0	0.0
	2	0.0	0.0	2	1.0	0.0
	2	0.0	0.0	2	1.0	0.0
	2	0.0	0.0	2	1.0	0.0
	2	0.0	0.0	2	1.0	0.0
	2	0.0	0.0	2	1.0	0.0
	2	0.0	0.0	2	1.0	0.0
	2	0.0	0.0	2	1.0	0.0
	2	0.0	0.0	2	1.0	0.0
	2	0.0	0.0	2	1.0	0.0
	2	0.0	0.0	2	1.0	0.0
	2	0.0	0.0	2	1.0	0.0
	2	0.0	0.0	2	1.0	0.0
	2	0.0	0.0	2	1.0	0.0
	2	0.0	0.0	2	1.0	0.0
	2	0.0	0.0	2	1.0	0.0
	2	0.0	0.0	2	1.0	0.0
	2	0.0	0.0	2	1.0	0.0
	2	0.0	0.0	2	1.0	0.0
	2	0.0	0.0	2	1.0	0.0
	2	0.0	0.0	2	1.0	0.0
	2	0.0	0.0	2	1.0	0.0
	2	0.0	0.0	2	1.0	0.0
	2	0.0	0.0	2	1.0	0.0
	2	0.0	0.0	2	1.0	0.0
	2	0.0	0.0	2	1.0	0.0
	2	0.0	0.0	2	1.0	0.0
	2	0.0	0.0	2	1.0	0.0
	2	0.0	0.0	2	1.0	0.0
	2	0.0	0.0	2	1.0	0.0
	2	0.0	0.0	2	1.0	0.0
	2	0.0	0.0	2	1.0	0.0
	2	0.0	0.0	2	1.0	0.0
	2	0.0	0.0	2	1.0	0.0
	2	0.0	0.0	2	1.0	0.0
	2	0.0	0.0	2	1.0	0.0
	2	0.0	0.0	2	1.0	0.0
	2	0.0	0.0	2	1.0	0.0
	2	0.0	0.0	2	1.0	0.0
	2	0.0	0.0	2	1.0	0.0
	2	0.0	0.0	2	1.0	0.0
	2	0.0	0.0	2	1.0	0.0
	2	0.0	0.0	2	1.0	0.0
	2	0.0	0.0	2	1.0	0.0
	2	0.0	0.0	2	1.0	0.0
	2	0.0	0.0	2	1.0	0.0
	2	0.0	0.0	2	1.0	0.0
	2	0.0	0.0	2	1.0	0.0
	2	0.0	0.0	2	1.0	0.0
	2	0.0	0.0	2	1.0	0.0
	2	0.0	0.0	2	1.0	0.0
	2	0.0	0.0	2	1.0	0.0
...
];

%%-----  OPF Data  -----%%
%% cost data
%    1    startup    shutdown    n    x1    y1    ...    xn    yn
%    2    startup    shutdown    n    c(n-1)    ...    c0
mpc.dclinecost = [
	2	0.0	0.0	2	0.0	0.0
	2	0.0	0.0	2	0.0	0.0
	2	0.0	0.0	2	0.0	0.0
	2	0.0	0.0	2	0.0	0.0
	2	0.0	0.0	2	0.0	0.0
	2	0.0	0.0	2	0.0	0.0
	2	0.0	0.0	2	0.0	0.0
	2	0.0	0.0	2	0.0	0.0
	2	0.0	0.0	2	0.0	0.0
	2	0.0	0.0	2	0.0	0.0
	2	0.0	0.0	2	0.0	0.0
	2	0.0	0.0	2	0.0	0.0
	2	0.0	0.0	2	0.0	0.0
	2	0.0	0.0	2	0.0	0.0
	2	0.0	0.0	2	0.0	0.0
	2	0.0	0.0	2	0.0	0.0
	2	0.0	0.0	2	0.0	0.0
];

%% bus names
mpc.bus_name = {
	'ANGRA-3--000'
	'ANGRA-1--1GR'
	'ANGRA-2--000'
	'LCBARRET-6GR'
	'LCBARRET-000'
	'FUNIL----3GR'
	'FURNAS---7GR'
	'FURNAS---000'
	'ITUMBIAR-5GR'
	'ITUMBIAR-000'
	'MARIMBON-7GR'
	'MANSO----4GR'
	'M.MOR.A--5GR'
	'M.MOR.B--4GR'
	'P.COLOMB-4GR'
	'N.MUTU-MT034'
	'SCRUZ-19-000'
	'SCRUZ-13-000'
	'SCRUZ-16-000'
	'N.MUT-PCH034'
	'CORUMBA--3GR'
	'S.MESA---3GR'
	'S.MESA---000'
	'GRAJAU-2-1CS'
	'B.GERAL1-000'
	'VITORIA2-1CS'
	'BAND-1CER013'
	'BAND-2CER013'
	'GRAJAU-1-1CS'
	'VITORIA1-1CS'
	'CAMPOSCER013'
	'IBIUNA---4CS'
	'T.PRETO--1CS'
	'BALTO-CER013'
	'IVAIP3-PR069'
	'IVAIP2-PR069'
	'IVAIP2-PR000'
	'IVAIP3-PR000'
	'F.IGUA-PR765'
	'FZ-500-PR500'
	'IV-FZ1CAP765'
	'IV-FZ2CAP765'
	'IV-FZ3CAP765'
	'IVAIPO-PR765'
	'IVAIPO-PR525'
	'IVAIP1-PR069'
	'IVAIP1-PR000'
	'IV-IT1CAP765'
	'IV-IT2CAP765'
	'IV-IT3CAP765'
	'ITABER-SP765'
	'IT-TP1CAP765'
	'IT-TP2CAP765'
	'IT-TP3CAP765'
	'TPRETO-SP765'
	'TPRETO-SP500'
	'TPRETO-SP345'
	'TPRETO-SP069'
	'TPRAT3-SP000'
	'TPRAT4-SP000'
	'TPRET2-SP345'
	'FOZ500-PR500'
	'IBIUNA-SP345'
	'RESEND-RJ500'
	'VIANA--ES345'
	'VI1TAP-ES013'
	'SB-SM1CAP500'
	'SB-SM2CAP500'
	'SB-SM3CAP500'
	'VI2TAP-ES013'
	'VI3TAP-ES013'
	'GUARU2-SP345'
	'JACAR2-RJ138'
	'ARARAQ-SP525'
	'MARIMB-MG500'
	'ARARAQ-SP500'
	'P.CALD-MG500'
	'CAMPIN-SP500'
	'C.PAUL-SP500'
	'ANGRA--RJ500'
	'ADRIAN-RJ500'
	'GRAJAU-RJ500'
	'S.JOSE-RJ500'
	'BYPSAD-RJ500'
	'GR1T52-RJ000'
	'VIT2CI-ES013'
	'BATEI1-PR500'
	'BATEI2-PR500'
	'BATEIA-ES013'
	'BAT-BC-ES500'
	'IMBTAP-RJ138'
	'BANDT4-GO000'
	'BANDTE-GO013'
	'P.CALD-MG345'
	'PCAT51-MG000'
	'IBIUNA-SP500'
	'CAMPIN-SP345'
	'CAMPI1-SP000'
	'IBBAT1-PR500'
	'GUARUL-SP345'
	'MO-RL1-SP345'
	'MO-RL2-SP345'
	'MOGI---SP345'
	'IBBAT2-PR500'
	'M.MORA-MG345'
	'ADRT1A-RJ000'
	'LCBARR-SP345'
	'JACT1A-RJ000'
	'FURNAS-MG345'
	'JACT2A-RJ000'
	'ITUTIN-MG345'
	'ADRT51-RJ000'
	'ADRIAN-RJ345'
	'ADRT53-RJ000'
	'ADRT55-RJ000'
	'ADRT2B-RJ000'
	'JACARE-RJ345'
	'ADRT1B-RJ000'
	'ADRT2A-RJ000'
	'CAMPOS-RJ345'
	'CAMPO1-RJ000'
	'VITORI-ES345'
	'VITAT1-ES000'
	'VIT1CI-ES013'
	'VITAT2-ES000'
	'VITAT3-ES000'
	'VITAT2-ES013'
	'VITAT3-ES013'
	'VITAT4-ES013'
	'CAMPCA-RJ345'
	'VITAT4-ES000'
	'JA-R30-RJ013'
	'JB-R60-RJ013'
	'MO-FCE-SP230'
	'CAMAT1-SP000'
	'CAMPI--SP013'
	'PCAT02-MG000'
	'P.CAL--MG013'
	'JACT1B-RJ000'
	'JA-R60-RJ013'
	'BANDE2-GO230'
	'SJOSE1-RJ138'
	'P.CALD-MG138'
	'CAMPIN-SP138'
	'IMBARE-RJ138'
	'ADRIAN-RJ138'
	'R.LEAO-RJ138'
	'CAMPOS-RJ138'
	'CAMPI2-SP000'
	'VITORI-ES138'
	'GRAJAU-RJ138'
	'GR2T54-RJ000'
	'JACAR1-RJ138'
	'ANGDEF-RJ138'
	'FUNIL--RJ138'
	'C.PAUL-SP138'
	'S.CRUZ-RJ138'
	'ANGRA--RJ138'
	'CAMPI2-SP013'
	'M.MORA-MG138'
	'BGERT1-DF000'
	'P.COL--MG138'
	'CM1CAP-RJ013'
	'CM1REA-RJ013'
	'ADRT55-RJ013'
	'ADRT53-RJ013'
	'CAMPI1-SP013'
	'ADRT51-RJ013'
	'PCALAT-MG013'
	'VITAT1-ES013'
	'UCAMP1-RJ000'
	'RSIL-1UTE000'
	'UCAMP2-RJ000'
	'RSIL-2UTE000'
	'ADRT1B-RJ013'
	'ADRT2A-RJ013'
	'ADRT2B-RJ013'
	'BGT1CI-DF013'
	'ADRIAN-RJ013'
	'ITUMBI-MG500'
	'CAMPO2-RJ000'
	'CM2CAP-RJ013'
	'MARIMB-MG345'
	'MARIMB-MG000'
	'CM2REA-RJ013'
	'P.COL--MG345'
	'ITUMBI-MG345'
	'BANDEI-GO345'
	'B.SUL--DF345'
	'CORUMB-GO345'
	'B.GERA-DF034'
	'BSULT2-DF000'
	'BANDT1-GO000'
	'BANDT2-GO000'
	'ITUMBI-MG230'
	'BANDEI-GO230'
	'B.GERA-DF230'
	'B.SUL--DF230'
	'B.ALTO-GO230'
	'S.MESA-GO230'
	'R.VERD-GO230'
	'BSULT2-DF013'
	'SAMAMB-DF500'
	'SAMAMB-DF345'
	'S.MESA-GO500'
	'B.SUL--DF138'
	'SAMAMB-DF138'
...